/*--------------------------------*- C++ -*----------------------------------*\
| =========                 |                                                 |
| \\      /  F ield         | OpenFOAM                                        |
|  \\    /   O peration     |                                                 |
|   \\  /    A nd           | case_004 · M-V64A-VAL-FULL-1                    |
|    \\/     M anipulation  | Newtonian air at sea-level cond                 |
\*---------------------------------------------------------------------------*/
FoamFile
{
    version     2.0;
    format      ascii;
    class       dictionary;
    location    "constant";
    object      transportProperties;
}
// * * * * * * * * * * * * * * * * * * * * * * * * * * * * * * * * * * * * * //

transportModel  Newtonian;

// kinematic viscosity (m^2/s) — air at ~15°C, sea-level
nu              1.5e-05;

// ************************************************************************* //
