/*--------------------------------*- C++ -*----------------------------------*\
  =========                 |
  \\      /  F ield         | case_016 m219 cavity DES acoustic
   \\    /   O peration     |
    \\  /    A nd           |
     \\/     M anipulation  |
\*---------------------------------------------------------------------------*/
FoamFile
{
    version     2.0;
    format      ascii;
    class       dictionary;
    location    "constant";
    object      thermophysicalProperties;
}
// * * * * * * * * * * * * * * * * * * * * * * * * * * * * * * * * * * * * * //

thermoType
{
    type            hePsiThermo;
    mixture         pureMixture;
    transport       sutherland;
    thermo          hConst;
    equationOfState perfectGas;
    specie          specie;
    energy          sensibleInternalEnergy;
}

mixture
{
    specie
    {
        molWeight   28.96;
    }
    thermodynamics
    {
        Cp          1004.5;
        Hf          0;
    }
    transport
    {
        As          1.458e-06;
        Ts          110.4;
    }
}
// ************************************************************************* //
