/*--------------------------------*- C++ -*----------------------------------*\
| =========                 |                                                 |
| \\      /  F ield         | OpenFOAM: The Open Source CFD Toolbox           |
|  \\    /   O peration     | Version:  v2512                                 |
|   \\  /    A nd           | Web:      www.openfoam.com                      |
|    \\/     M anipulation  |                                                 |
\*---------------------------------------------------------------------------*/
// Incompressible Newtonian (air-like) · ν = 1.5e-5 m²/s · matches case_025
// → Re_D = u_mean·D/ν = 1.5·0.01/1.5e-5 = 1000.00 (deep laminar · no model)
FoamFile
{
    version     2.0;
    format      ascii;
    class       dictionary;
    location    "constant";
    object      transportProperties;
}

transportModel  Newtonian;

nu              1.5e-05;

// ************************************************************************* //
