FoamFile
{
    version     2.0;
    format      ascii;
    class       dictionary;
    location    "constant";
    object      thermophysicalProperties;
}
// generated by scripts/p4/generate_rae2822_case9.py (V73.B · DEC-V61-240)

thermoType
{
    type            hePsiThermo;
    mixture         pureMixture;
    transport       sutherland;     // B109 spec (vendor tutorial uses const)
    thermo          hConst;
    equationOfState perfectGas;
    specie          specie;
    energy          sensibleInternalEnergy;
}

mixture
{
    specie
    {
        molWeight   28.96;
    }
    thermodynamics
    {
        Cp          1004.5;
        Hf          0;
    }
    transport
    {
        As          1.4792e-06;
        Ts          116.0;
    }
}
