/*---------------------------------------------------------------------------*\
  =========                 |
  \\      /  F ield         | OpenFOAM: The Open Source CFD Toolbox
   \\    /   O peration     | Website:  https://openfoam.org
    \\  /    A nd           | Version:  10
     \\/     M anipulation  |
\*---------------------------------------------------------------------------*/
Build  : 10-c4cf895ad8fa
Exec   : checkMesh -latestTime
Date   : Apr 18 2026
Time   : 00:22:57
Host   : "9edc5f19e7f6"
PID    : 77438
I/O    : uncollated
Case   : /home/openfoam/naca_diag
nProcs : 1
sigFpe : Enabling floating point exception trapping (FOAM_SIGFPE).
fileModificationChecking : Monitoring run-time modified files using timeStampMaster (fileModificationSkew 10)
allowSystemOperations : Allowing user-supplied system call operations

// * * * * * * * * * * * * * * * * * * * * * * * * * * * * * * * * * * * * * //
Create time

Create polyMesh for time = 439

Time = 439s

Mesh stats
    points:           32480
    internal points:  0
    faces:            64240
    internal faces:   31760
    cells:            16000
    faces per cell:   6
    boundary patches: 5
    point zones:      0
    face zones:       0
    cell zones:       0

Overall number of cells of each type:
    hexahedra:     16000
    prisms:        0
    wedges:        0
    pyramids:      0
    tet wedges:    0
    tetrahedra:    0
    polyhedra:     0

Checking topology...
    Boundary definition OK.
    Cell to face addressing OK.
    Point usage OK.
    Upper triangular ordering OK.
    Face vertices OK.
    Number of regions: 1 (OK).

Checking patch topology for multiply connected surfaces...
    Patch               Faces    Points   Surface topology                  
    aerofoil            120      240      ok (non-closed singly connected)  
    inlet               200      402      ok (non-closed singly connected)  
    outlet              160      322      ok (non-closed singly connected)  
    back                16000    16240    ok (non-closed singly connected)  
    front               16000    16240    ok (non-closed singly connected)  

Checking geometry...
    Overall domain bounding box (-5 -0.001 -2) (5 0.001 2)
    Mesh has 2 geometric (non-empty/wedge) directions (1 0 1)
    Mesh has 2 solution (non-empty) directions (1 0 1)
    All edges aligned with or perpendicular to non-empty directions.
    Boundary openness (7.85115e-20 6.40211e-16 -1.05298e-19) OK.
    Max cell openness = 2.17953e-16 OK.
    Max aspect ratio = 108.35 OK.
    Minimum face area = 4.20819e-06. Maximum face area = 0.0236667.  Face area magnitudes OK.
    Min volume = 2.97651e-08. Max volume = 4.73335e-05.  Total volume = 0.0586367.  Cell volumes OK.
    Mesh non-orthogonality Max: 68.9527 average: 25.887
    Non-orthogonality check OK.
    Face pyramids OK.
    Max skewness = 1.12683 OK.
    Coupled point location match (average 0) OK.

Mesh OK.

End

